      64
 i =     5105, time =     5105.000, E =      -169.8185088960
  P         0.4497209450       12.3454671040       13.5720038312
  P        13.8323469637       12.3678878037       13.4569348004
  P         9.9482382278       12.3916273310       13.6095254655
  P         4.9610288749       12.3710721767       13.7504046910
  P         0.3505396601        2.4907857064       13.5119865364
  P        13.9083337421        2.4737062876       13.3996195438
  P         9.6460722585        2.4227641222       13.7637934183
  P         4.8981456775        2.5051294242       13.6477921877
  P         0.3618170383        5.7211649438       13.4249022891
  P        13.7819259851        5.6120480629       13.4458585961
  P         9.8424294929        5.9026962283       13.7287829245
  P         4.8166219124        5.9512139007       13.5374228503
  P         0.3009877805        9.0518412718       13.1975819147
  P        13.7444636925        9.1532014615       13.4421879926
  P         9.9283894985        9.0634546855       13.3647025721
  P         5.1967010722        9.1237320678       13.7229408394
  P         4.3028939192       12.5246479902       11.6264102699
  P        17.6149835042       12.3725156478       11.5704189731
  P        13.3689464504       12.4842912589       11.2461550374
  P         8.6468256279       12.4612864435       11.8886458520
  P         4.2506040312        2.4167448261       11.4680309225
  P        17.5859357185        2.4242778509       11.5013353693
  P        13.2114582095        2.5786717159       11.2309257405
  P         8.6635917496        2.4225355692       11.7494117227
  P         4.1528554383        5.8404568637       11.3550731296
  P        17.5744171843        5.7625419072       11.4674882927
  P        13.2512483279        5.5926929250       11.2676014201
  P         8.7994565923        5.7914098718       11.7662439373
  P         4.3904927848        9.2342138493       11.4308807758
  P        17.4494922576        8.9401137510       11.2967283739
  P        13.4850126158        9.0149009232       11.2456468542
  P         8.6979789492        9.1120878688       11.4662338708
  P         2.6877310406        0.7743892091       11.4834524997
  P        16.0924191093        0.9068783260       11.4689877995
  P        11.8483453487        0.8409068750       11.3320739627
  P         7.1638820261        0.8175487109       11.7818559813
  P         2.8100867744        4.0592353341       11.3706992888
  P        16.0568229941        4.1530884397       11.3929245004
  P        11.6565209376        4.1236255807       11.4007265242
  P         7.2769490408        4.2269601037       11.7599858278
  P         2.8309525581        7.6730989609       11.2720384119
  P        16.0075539533        7.2216279395       11.5451711315
  P        11.9418744290        7.4289670219       11.2441634179
  P         7.3018283649        7.4258453862       11.6983758178
  P         2.8554483287       10.7798248568       11.3534652457
  P        16.1037405294       10.7678293879       11.4773883913
  P        11.9808732177       10.6769555984       11.0995476575
  P         7.3490411585       10.7979583161       11.7580031636
  P         1.8520278189        0.8060278161       13.5437362325
  P        15.3732216860        0.8200510553       13.4219913806
  P        11.2459800564        0.9170110326       13.4346246549
  P         6.3462765572        0.9130458457       13.9355089139
  P         1.7860771705        4.0966948558       13.3986572595
  P        15.3580337646        4.1516680097       13.4667614924
  P        11.1282937016        4.0020851033       13.5708127099
  P         6.2634746118        4.2822109750       13.7368916922
  P         1.8267662937        7.5019984345       13.3265248718
  P        15.0758309126        7.4195468762       13.6240182861
  P        11.3509734563        7.4027778625       13.3766699865
  P         6.5538140673        7.4048493374       13.6625499619
  P         1.8686434424       10.5959453333       13.3219947946
  P        15.3185960277       10.6562908068       13.6041325148
  P        11.4481630028       10.7762703765       13.2233356824
  P         6.5353294363       10.8395723917       13.7592589491
